data/pypsa_eur_fr400/network.m
function mpc = network
%% MATPOWER case file — PyPSA-Eur OSM France 400 kV
%% Buses: 192  Branches: 400

mpc.version = '2';

mpc.baseMVA = 100.0;

%% bus data
%  bus_i  type  Pd    Qd    Gs  Bs  area  Vm    Va  baseKV  zone  Vmax  Vmin
mpc.bus = [
    1  3  1.0  0.1  0  0  1  1.0  0  400.0  1  1.05  0.95;
    2  1  1.0  0.1  0  0  1  1.0  0  400.0  1  1.05  0.95;
    3  1  1.0  0.1  0  0  1  1.0  0  400.0  1  1.05  0.95;
    4  1  1.0  0.1  0  0  1  1.0  0  380.0  1  1.05  0.95;
    5  1  1.0  0.1  0  0  1  1.0  0  380.0  1  1.05  0.95;
    6  1  1.0  0.1  0  0  1  1.0  0  400.0  1  1.05  0.95;
    7  1  1.0  0.1  0  0  1  1.0  0  400.0  1  1.05  0.95;
    8  1  1.0  0.1  0  0  1  1.0  0  400.0  1  1.05  0.95;
    9  1  1.0  0.1  0  0  1  1.0  0  400.0  1  1.05  0.95;
    10  1  1.0  0.1  0  0  1  1.0  0  400.0  1  1.05  0.95;
    11  1  1.0  0.1  0  0  1  1.0  0  400.0  1  1.05  0.95;
    12  1  1.0  0.1  0  0  1  1.0  0  400.0  1  1.05  0.95;
    13  1  1.0  0.1  0  0  1  1.0  0  400.0  1  1.05  0.95;
    14  1  1.0  0.1  0  0  1  1.0  0  400.0  1  1.05  0.95;
    15  1  1.0  0.1  0  0  1  1.0  0  400.0  1  1.05  0.95;
    16  1  1.0  0.1  0  0  1  1.0  0  400.0  1  1.05  0.95;
    17  1  1.0  0.1  0  0  1  1.0  0  400.0  1  1.05  0.95;
    18  1  1.0  0.1  0  0  1  1.0  0  400.0  1  1.05  0.95;
    19  1  1.0  0.1  0  0  1  1.0  0  400.0  1  1.05  0.95;
    20  1  1.0  0.1  0  0  1  1.0  0  400.0  1  1.05  0.95;
    21  1  1.0  0.1  0  0  1  1.0  0  400.0  1  1.05  0.95;
    22  1  1.0  0.1  0  0  1  1.0  0  400.0  1  1.05  0.95;
    23  1  1.0  0.1  0  0  1  1.0  0  400.0  1  1.05  0.95;
    24  1  1.0  0.1  0  0  1  1.0  0  400.0  1  1.05  0.95;
    25  1  1.0  0.1  0  0  1  1.0  0  400.0  1  1.05  0.95;
    26  1  1.0  0.1  0  0  1  1.0  0  400.0  1  1.05  0.95;
    27  1  1.0  0.1  0  0  1  1.0  0  400.0  1  1.05  0.95;
    28  1  1.0  0.1  0  0  1  1.0  0  400.0  1  1.05  0.95;
    29  1  1.0  0.1  0  0  1  1.0  0  400.0  1  1.05  0.95;
    30  1  1.0  0.1  0  0  1  1.0  0  400.0  1  1.05  0.95;
    31  1  1.0  0.1  0  0  1  1.0  0  400.0  1  1.05  0.95;
    32  1  1.0  0.1  0  0  1  1.0  0  400.0  1  1.05  0.95;
    33  1  1.0  0.1  0  0  1  1.0  0  400.0  1  1.05  0.95;
    34  1  1.0  0.1  0  0  1  1.0  0  400.0  1  1.05  0.95;
    35  1  1.0  0.1  0  0  1  1.0  0  400.0  1  1.05  0.95;
    36  1  1.0  0.1  0  0  1  1.0  0  400.0  1  1.05  0.95;
    37  1  1.0  0.1  0  0  1  1.0  0  400.0  1  1.05  0.95;
    38  1  1.0  0.1  0  0  1  1.0  0  400.0  1  1.05  0.95;
    39  1  1.0  0.1  0  0  1  1.0  0  400.0  1  1.05  0.95;
    40  1  1.0  0.1  0  0  1  1.0  0  400.0  1  1.05  0.95;
    41  1  1.0  0.1  0  0  1  1.0  0  400.0  1  1.05  0.95;
    42  1  1.0  0.1  0  0  1  1.0  0  400.0  1  1.05  0.95;
    43  1  1.0  0.1  0  0  1  1.0  0  400.0  1  1.05  0.95;
    44  1  1.0  0.1  0  0  1  1.0  0  400.0  1  1.05  0.95;
    45  1  1.0  0.1  0  0  1  1.0  0  400.0  1  1.05  0.95;
    46  1  1.0  0.1  0  0  1  1.0  0  400.0  1  1.05  0.95;
    47  1  1.0  0.1  0  0  1  1.0  0  400.0  1  1.05  0.95;
    48  1  1.0  0.1  0  0  1  1.0  0  400.0  1  1.05  0.95;
    49  1  1.0  0.1  0  0  1  1.0  0  400.0  1  1.05  0.95;
    50  1  1.0  0.1  0  0  1  1.0  0  400.0  1  1.05  0.95;
    51  1  1.0  0.1  0  0  1  1.0  0  400.0  1  1.05  0.95;
    52  1  1.0  0.1  0  0  1  1.0  0  400.0  1  1.05  0.95;
    53  1  1.0  0.1  0  0  1  1.0  0  400.0  1  1.05  0.95;
    54  1  1.0  0.1  0  0  1  1.0  0  400.0  1  1.05  0.95;
    55  1  1.0  0.1  0  0  1  1.0  0  400.0  1  1.05  0.95;
    56  1  1.0  0.1  0  0  1  1.0  0  400.0  1  1.05  0.95;
    57  1  1.0  0.1  0  0  1  1.0  0  400.0  1  1.05  0.95;
    58  1  1.0  0.1  0  0  1  1.0  0  400.0  1  1.05  0.95;
    59  1  1.0  0.1  0  0  1  1.0  0  400.0  1  1.05  0.95;
    60  1  1.0  0.1  0  0  1  1.0  0  400.0  1  1.05  0.95;
    61  1  1.0  0.1  0  0  1  1.0  0  400.0  1  1.05  0.95;
    62  1  1.0  0.1  0  0  1  1.0  0  400.0  1  1.05  0.95;
    63  1  1.0  0.1  0  0  1  1.0  0  400.0  1  1.05  0.95;
    64  1  1.0  0.1  0  0  1  1.0  0  400.0  1  1.05  0.95;
    65  1  1.0  0.1  0  0  1  1.0  0  400.0  1  1.05  0.95;
    66  1  1.0  0.1  0  0  1  1.0  0  400.0  1  1.05  0.95;
    67  1  1.0  0.1  0  0  1  1.0  0  400.0  1  1.05  0.95;
    68  1  1.0  0.1  0  0  1  1.0  0  400.0  1  1.05  0.95;
    69  1  1.0  0.1  0  0  1  1.0  0  400.0  1  1.05  0.95;
    70  1  1.0  0.1  0  0  1  1.0  0  400.0  1  1.05  0.95;
    71  1  1.0  0.1  0  0  1  1.0  0  400.0  1  1.05  0.95;
    72  1  1.0  0.1  0  0  1  1.0  0  400.0  1  1.05  0.95;
    73  1  1.0  0.1  0  0  1  1.0  0  400.0  1  1.05  0.95;
    74  1  1.0  0.1  0  0  1  1.0  0  400.0  1  1.05  0.95;
    75  1  1.0  0.1  0  0  1  1.0  0  400.0  1  1.05  0.95;
    76  1  1.0  0.1  0  0  1  1.0  0  400.0  1  1.05  0.95;
    77  1  1.0  0.1  0  0  1  1.0  0  400.0  1  1.05  0.95;
    78  1  1.0  0.1  0  0  1  1.0  0  400.0  1  1.05  0.95;
    79  1  1.0  0.1  0  0  1  1.0  0  400.0  1  1.05  0.95;
    80  1  1.0  0.1  0  0  1  1.0  0  400.0  1  1.05  0.95;
    81  1  1.0  0.1  0  0  1  1.0  0  400.0  1  1.05  0.95;
    82  1  1.0  0.1  0  0  1  1.0  0  400.0  1  1.05  0.95;
    83  1  1.0  0.1  0  0  1  1.0  0  400.0  1  1.05  0.95;
    84  1  1.0  0.1  0  0  1  1.0  0  400.0  1  1.05  0.95;
    85  1  1.0  0.1  0  0  1  1.0  0  400.0  1  1.05  0.95;
    86  1  1.0  0.1  0  0  1  1.0  0  400.0  1  1.05  0.95;
    87  1  1.0  0.1  0  0  1  1.0  0  400.0  1  1.05  0.95;
    88  1  1.0  0.1  0  0  1  1.0  0  400.0  1  1.05  0.95;
    89  1  1.0  0.1  0  0  1  1.0  0  400.0  1  1.05  0.95;
    90  1  1.0  0.1  0  0  1  1.0  0  400.0  1  1.05  0.95;
    91  1  1.0  0.1  0  0  1  1.0  0  400.0  1  1.05  0.95;
    92  1  1.0  0.1  0  0  1  1.0  0  400.0  1  1.05  0.95;
    93  1  1.0  0.1  0  0  1  1.0  0  400.0  1  1.05  0.95;
    94  1  1.0  0.1  0  0  1  1.0  0  400.0  1  1.05  0.95;
    95  1  1.0  0.1  0  0  1  1.0  0  400.0  1  1.05  0.95;
    96  1  1.0  0.1  0  0  1  1.0  0  400.0  1  1.05  0.95;
    97  1  1.0  0.1  0  0  1  1.0  0  400.0  1  1.05  0.95;
    98  1  1.0  0.1  0  0  1  1.0  0  400.0  1  1.05  0.95;
    99  1  1.0  0.1  0  0  1  1.0  0  400.0  1  1.05  0.95;
    100  1  1.0  0.1  0  0  1  1.0  0  400.0  1  1.05  0.95;
    101  1  1.0  0.1  0  0  1  1.0  0  400.0  1  1.05  0.95;
    102  1  1.0  0.1  0  0  1  1.0  0  400.0  1  1.05  0.95;
    103  1  1.0  0.1  0  0  1  1.0  0  400.0  1  1.05  0.95;
    104  1  1.0  0.1  0  0  1  1.0  0  400.0  1  1.05  0.95;
    105  1  1.0  0.1  0  0  1  1.0  0  400.0  1  1.05  0.95;
    106  1  1.0  0.1  0  0  1  1.0  0  400.0  1  1.05  0.95;
    107  1  1.0  0.1  0  0  1  1.0  0  400.0  1  1.05  0.95;
    108  1  1.0  0.1  0  0  1  1.0  0  400.0  1  1.05  0.95;
    109  1  1.0  0.1  0  0  1  1.0  0  400.0  1  1.05  0.95;
    110  1  1.0  0.1  0  0  1  1.0  0  400.0  1  1.05  0.95;
    111  1  1.0  0.1  0  0  1  1.0  0  400.0  1  1.05  0.95;
    112  1  1.0  0.1  0  0  1  1.0  0  400.0  1  1.05  0.95;
    113  1  1.0  0.1  0  0  1  1.0  0  400.0  1  1.05  0.95;
    114  1  1.0  0.1  0  0  1  1.0  0  400.0  1  1.05  0.95;
    115  1  1.0  0.1  0  0  1  1.0  0  400.0  1  1.05  0.95;
    116  1  1.0  0.1  0  0  1  1.0  0  400.0  1  1.05  0.95;
    117  1  1.0  0.1  0  0  1  1.0  0  400.0  1  1.05  0.95;
    118  1  1.0  0.1  0  0  1  1.0  0  400.0  1  1.05  0.95;
    119  1  1.0  0.1  0  0  1  1.0  0  400.0  1  1.05  0.95;
    120  1  1.0  0.1  0  0  1  1.0  0  400.0  1  1.05  0.95;
    121  1  1.0  0.1  0  0  1  1.0  0  400.0  1  1.05  0.95;
    122  1  1.0  0.1  0  0  1  1.0  0  400.0  1  1.05  0.95;
    123  1  1.0  0.1  0  0  1  1.0  0  400.0  1  1.05  0.95;
    124  1  1.0  0.1  0  0  1  1.0  0  400.0  1  1.05  0.95;
    125  1  1.0  0.1  0  0  1  1.0  0  400.0  1  1.05  0.95;
    126  1  1.0  0.1  0  0  1  1.0  0  400.0  1  1.05  0.95;
    127  1  1.0  0.1  0  0  1  1.0  0  400.0  1  1.05  0.95;
    128  1  1.0  0.1  0  0  1  1.0  0  400.0  1  1.05  0.95;
    129  1  1.0  0.1  0  0  1  1.0  0  400.0  1  1.05  0.95;
    130  1  1.0  0.1  0  0  1  1.0  0  400.0  1  1.05  0.95;
    131  1  1.0  0.1  0  0  1  1.0  0  400.0  1  1.05  0.95;
    132  1  1.0  0.1  0  0  1  1.0  0  400.0  1  1.05  0.95;
    133  1  1.0  0.1  0  0  1  1.0  0  400.0  1  1.05  0.95;
    134  1  1.0  0.1  0  0  1  1.0  0  400.0  1  1.05  0.95;
    135  1  1.0  0.1  0  0  1  1.0  0  400.0  1  1.05  0.95;
    136  1  1.0  0.1  0  0  1  1.0  0  400.0  1  1.05  0.95;
    137  1  1.0  0.1  0  0  1  1.0  0  400.0  1  1.05  0.95;
    138  1  1.0  0.1  0  0  1  1.0  0  400.0  1  1.05  0.95;
    139  1  1.0  0.1  0  0  1  1.0  0  400.0  1  1.05  0.95;
    140  1  1.0  0.1  0  0  1  1.0  0  400.0  1  1.05  0.95;
    141  1  1.0  0.1  0  0  1  1.0  0  400.0  1  1.05  0.95;
    142  1  1.0  0.1  0  0  1  1.0  0  400.0  1  1.05  0.95;
    143  1  1.0  0.1  0  0  1  1.0  0  400.0  1  1.05  0.95;
    144  1  1.0  0.1  0  0  1  1.0  0  400.0  1  1.05  0.95;
    145  1  1.0  0.1  0  0  1  1.0  0  400.0  1  1.05  0.95;
    146  1  1.0  0.1  0  0  1  1.0  0  400.0  1  1.05  0.95;
    147  1  1.0  0.1  0  0  1  1.0  0  400.0  1  1.05  0.95;
    148  1  1.0  0.1  0  0  1  1.0  0  400.0  1  1.05  0.95;
    149  1  1.0  0.1  0  0  1  1.0  0  400.0  1  1.05  0.95;
    150  1  1.0  0.1  0  0  1  1.0  0  400.0  1  1.05  0.95;
    151  1  1.0  0.1  0  0  1  1.0  0  400.0  1  1.05  0.95;
    152  1  1.0  0.1  0  0  1  1.0  0  400.0  1  1.05  0.95;
    153  1  1.0  0.1  0  0  1  1.0  0  400.0  1  1.05  0.95;
    154  1  1.0  0.1  0  0  1  1.0  0  400.0  1  1.05  0.95;
    155  1  1.0  0.1  0  0  1  1.0  0  400.0  1  1.05  0.95;
    156  1  1.0  0.1  0  0  1  1.0  0  400.0  1  1.05  0.95;
    157  1  1.0  0.1  0  0  1  1.0  0  400.0  1  1.05  0.95;
    158  1  1.0  0.1  0  0  1  1.0  0  400.0  1  1.05  0.95;
    159  1  1.0  0.1  0  0  1  1.0  0  400.0  1  1.05  0.95;
    160  1  1.0  0.1  0  0  1  1.0  0  400.0  1  1.05  0.95;
    161  1  1.0  0.1  0  0  1  1.0  0  400.0  1  1.05  0.95;
    162  1  1.0  0.1  0  0  1  1.0  0  400.0  1  1.05  0.95;
    163  1  1.0  0.1  0  0  1  1.0  0  400.0  1  1.05  0.95;
    164  1  1.0  0.1  0  0  1  1.0  0  400.0  1  1.05  0.95;
    165  1  1.0  0.1  0  0  1  1.0  0  400.0  1  1.05  0.95;
    166  1  1.0  0.1  0  0  1  1.0  0  400.0  1  1.05  0.95;
    167  1  1.0  0.1  0  0  1  1.0  0  400.0  1  1.05  0.95;
    168  1  1.0  0.1  0  0  1  1.0  0  400.0  1  1.05  0.95;
    169  1  1.0  0.1  0  0  1  1.0  0  400.0  1  1.05  0.95;
    170  1  1.0  0.1  0  0  1  1.0  0  400.0  1  1.05  0.95;
    171  1  1.0  0.1  0  0  1  1.0  0  400.0  1  1.05  0.95;
    172  1  1.0  0.1  0  0  1  1.0  0  400.0  1  1.05  0.95;
    173  1  1.0  0.1  0  0  1  1.0  0  400.0  1  1.05  0.95;
    174  1  1.0  0.1  0  0  1  1.0  0  400.0  1  1.05  0.95;
    175  1  1.0  0.1  0  0  1  1.0  0  400.0  1  1.05  0.95;
    176  1  1.0  0.1  0  0  1  1.0  0  400.0  1  1.05  0.95;
    177  1  1.0  0.1  0  0  1  1.0  0  400.0  1  1.05  0.95;
    178  1  1.0  0.1  0  0  1  1.0  0  400.0  1  1.05  0.95;
    179  1  1.0  0.1  0  0  1  1.0  0  400.0  1  1.05  0.95;
    180  1  1.0  0.1  0  0  1  1.0  0  400.0  1  1.05  0.95;
    181  1  1.0  0.1  0  0  1  1.0  0  400.0  1  1.05  0.95;
    182  1  1.0  0.1  0  0  1  1.0  0  400.0  1  1.05  0.95;
    183  1  1.0  0.1  0  0  1  1.0  0  400.0  1  1.05  0.95;
    184  1  1.0  0.1  0  0  1  1.0  0  400.0  1  1.05  0.95;
    185  1  1.0  0.1  0  0  1  1.0  0  400.0  1  1.05  0.95;
    186  1  1.0  0.1  0  0  1  1.0  0  400.0  1  1.05  0.95;
    187  1  1.0  0.1  0  0  1  1.0  0  400.0  1  1.05  0.95;
    188  1  1.0  0.1  0  0  1  1.0  0  400.0  1  1.05  0.95;
    189  1  1.0  0.1  0  0  1  1.0  0  400.0  1  1.05  0.95;
    190  1  1.0  0.1  0  0  1  1.0  0  400.0  1  1.05  0.95;
    191  1  1.0  0.1  0  0  1  1.0  0  400.0  1  1.05  0.95;
    192  1  1.0  0.1  0  0  1  1.0  0  400.0  1  1.05  0.95;
];

%% generator data
%  bus  Pg  Qg    Qmax   Qmin    Vg  mBase  status  Pmax   Pmin
mpc.gen = [
    1  0  0  99999  -99999  1.0  100.0  1  100000  0;
];

%% branch data
%  fbus  tbus  r           x           b           rateA   rateB   rateC   ratio  angle  status  angmin  angmax
mpc.branch = [
    167  166  0.00038462  0.00315385  0.14228800  1787.5  1787.5  1787.5  0  0  1  -360  360;
    178  177  0.00209218  0.01715588  0.77401600  1787.5  1787.5  1787.5  0  0  1  -360  360;
    85  154  0.00023389  0.00191791  0.08652800  1787.5  1787.5  1787.5  0  0  1  -360  360;
    151  22  0.00018782  0.00154014  1.11177600  7149.9  7149.9  7149.9  0  0  1  -360  360;
    146  54  0.00066317  0.00543801  0.24534400  1787.5  1787.5  1787.5  0  0  1  -360  360;
    53  10  0.00018067  0.00148149  0.06683200  1787.5  1787.5  1787.5  0  0  1  -360  360;
    76  104  0.00125782  0.01031417  0.46534400  1787.5  1787.5  1787.5  0  0  1  -360  360;
    60  15  0.00120704  0.00989771  0.44654400  1787.5  1787.5  1787.5  0  0  1  -360  360;
    65  137  0.00156386  0.01282365  0.57856000  1787.5  1787.5  1787.5  0  0  1  -360  360;
    78  151  0.00056130  0.00460264  0.20764800  1787.5  1787.5  1787.5  0  0  1  -360  360;
    82  96  0.00063787  0.00523054  0.23598400  1787.5  1787.5  1787.5  0  0  1  -360  360;
    125  78  0.00070543  0.00578455  0.26097600  1787.5  1787.5  1787.5  0  0  1  -360  360;
    144  14  0.00037203  0.00305060  0.13763200  1787.5  1787.5  1787.5  0  0  1  -360  360;
    144  14  0.00037113  0.00304328  0.13729600  1787.5  1787.5  1787.5  0  0  1  -360  360;
    107  160  0.00153476  0.01258504  0.56779200  1787.5  1787.5  1787.5  0  0  1  -360  360;
    104  19  0.00201991  0.01656326  0.74728000  1787.5  1787.5  1787.5  0  0  1  -360  360;
    162  31  0.00002876  0.00023587  0.17027200  7149.9  7149.9  7149.9  0  0  1  -360  360;
    162  31  0.00002922  0.00023964  0.17299200  7149.9  7149.9  7149.9  0  0  1  -360  360;
    136  137  0.00082610  0.00677399  0.30561600  1787.5  1787.5  1787.5  0  0  1  -360  360;
    117  27  0.00091681  0.00751788  0.33918400  1787.5  1787.5  1787.5  0  0  1  -360  360;
    26  117  0.00102273  0.00838642  0.37836800  1787.5  1787.5  1787.5  0  0  1  -360  360;
    155  156  0.00061706  0.00505992  0.22828800  1787.5  1787.5  1787.5  0  0  1  -360  360;
    57  188  0.00096944  0.00794943  0.35865600  1787.5  1787.5  1787.5  0  0  1  -360  360;
    48  166  0.00056716  0.00465074  0.20982400  1787.5  1787.5  1787.5  0  0  1  -360  360;
    48  166  0.00056716  0.00465074  0.20982400  1787.5  1787.5  1787.5  0  0  1  -360  360;
    43  34  0.00047824  0.00392159  0.17692800  1787.5  1787.5  1787.5  0  0  1  -360  360;
    191  21  0.00168563  0.01382214  0.62360000  1787.5  1787.5  1787.5  0  0  1  -360  360;
    152  21  0.00159467  0.01307628  0.58995200  1787.5  1787.5  1787.5  0  0  1  -360  360;
    187  145  0.00123274  0.01010846  0.45606400  1787.5  1787.5  1787.5  0  0  1  -360  360;
    142  187  0.00028701  0.00235345  0.10617600  1787.5  1787.5  1787.5  0  0  1  -360  360;
    150  128  0.00002733  0.00022411  0.01011200  1787.5  1787.5  1787.5  0  0  1  -360  360;
    2  59  0.00004694  0.00038487  0.01736000  1787.5  1787.5  1787.5  0  0  1  -360  360;
    23  82  0.00035908  0.00294443  0.13284800  1787.5  1787.5  1787.5  0  0  1  -360  360;
    122  3  0.00007209  0.00059113  0.02667200  1787.5  1787.5  1787.5  0  0  1  -360  360;
    26  27  0.00194096  0.01591585  0.71806400  1787.5  1787.5  1787.5  0  0  1  -360  360;
    26  36  0.00150021  0.01230169  0.55500800  1787.5  1787.5  1787.5  0  0  1  -360  360;
    26  36  0.00150020  0.01230162  0.55500800  1787.5  1787.5  1787.5  0  0  1  -360  360;
    25  26  0.00120550  0.00988514  0.44598400  1787.5  1787.5  1787.5  0  0  1  -360  360;
    25  26  0.00120553  0.00988532  0.44598400  1787.5  1787.5  1787.5  0  0  1  -360  360;
    181  106  0.00045115  0.00369939  0.16689600  1787.5  1787.5  1787.5  0  0  1  -360  360;
    181  106  0.00045115  0.00369939  0.16689600  1787.5  1787.5  1787.5  0  0  1  -360  360;
    181  182  0.00103377  0.00847693  0.38244800  1787.5  1787.5  1787.5  0  0  1  -360  360;
    181  182  0.00103377  0.00847693  0.38244800  1787.5  1787.5  1787.5  0  0  1  -360  360;
    75  181  0.00050553  0.00414537  0.18702400  1787.5  1787.5  1787.5  0  0  1  -360  360;
    75  181  0.00050554  0.00414540  0.18702400  1787.5  1787.5  1787.5  0  0  1  -360  360;
    127  181  0.00003476  0.00028501  0.01286400  1787.5  1787.5  1787.5  0  0  1  -360  360;
    127  181  0.00003476  0.00028501  0.01286400  1787.5  1787.5  1787.5  0  0  1  -360  360;
    42  28  0.00159295  0.01306219  0.58931200  1787.5  1787.5  1787.5  0  0  1  -360  360;
    98  75  0.00119681  0.00981384  0.44276800  1787.5  1787.5  1787.5  0  0  1  -360  360;
    192  180  0.00185601  0.01521926  0.68664000  1787.5  1787.5  1787.5  0  0  1  -360  360;
    192  98  0.00148532  0.01217963  0.54950400  1787.5  1787.5  1787.5  0  0  1  -360  360;
    180  75  0.00055286  0.00453349  0.20452800  1787.5  1787.5  1787.5  0  0  1  -360  360;
    192  47  0.00042381  0.00347526  0.15678400  1787.5  1787.5  1787.5  0  0  1  -360  360;
    47  120  0.00095666  0.00784464  0.35392000  1787.5  1787.5  1787.5  0  0  1  -360  360;
    47  120  0.00095666  0.00784464  0.35392000  1787.5  1787.5  1787.5  0  0  1  -360  360;
    192  47  0.00042549  0.00348901  0.15740800  1787.5  1787.5  1787.5  0  0  1  -360  360;
    70  66  0.00021748  0.00178336  0.08046400  1787.5  1787.5  1787.5  0  0  1  -360  360;
    69  70  0.00075548  0.00619495  0.27948800  1787.5  1787.5  1787.5  0  0  1  -360  360;
    125  69  0.00042310  0.00346941  0.15652800  1787.5  1787.5  1787.5  0  0  1  -360  360;
    151  73  0.00186206  0.01526885  0.68888000  1787.5  1787.5  1787.5  0  0  1  -360  360;
    76  151  0.00316629  0.02596357  1.17137600  1787.5  1787.5  1787.5  0  0  1  -360  360;
    76  151  0.00319158  0.02617096  1.18073600  1787.5  1787.5  1787.5  0  0  1  -360  360;
    76  151  0.00316588  0.02596024  1.17123200  1787.5  1787.5  1787.5  0  0  1  -360  360;
    73  109  0.00135184  0.01108512  0.50012800  1787.5  1787.5  1787.5  0  0  1  -360  360;
    151  94  0.00059807  0.00490421  0.22126400  1787.5  1787.5  1787.5  0  0  1  -360  360;
    119  184  0.00003638  0.00029834  0.01345600  1787.5  1787.5  1787.5  0  0  1  -360  360;
    183  184  0.00084562  0.00693407  0.31283200  1787.5  1787.5  1787.5  0  0  1  -360  360;
    119  184  0.00003662  0.00030030  0.01355200  1787.5  1787.5  1787.5  0  0  1  -360  360;
    183  184  0.00084562  0.00693407  0.31283200  1787.5  1787.5  1787.5  0  0  1  -360  360;
    119  184  0.00003662  0.00030030  0.01355200  1787.5  1787.5  1787.5  0  0  1  -360  360;
    119  184  0.00003638  0.00029834  0.01345600  1787.5  1787.5  1787.5  0  0  1  -360  360;
    86  184  0.00161697  0.01325916  0.59820800  1787.5  1787.5  1787.5  0  0  1  -360  360;
    27  28  0.00143103  0.01173444  0.52940800  1787.5  1787.5  1787.5  0  0  1  -360  360;
    27  28  0.00143103  0.01173442  0.52940800  1787.5  1787.5  1787.5  0  0  1  -360  360;
    192  36  0.00087714  0.00719253  0.32449600  1787.5  1787.5  1787.5  0  0  1  -360  360;
    192  36  0.00087711  0.00719231  0.32449600  1787.5  1787.5  1787.5  0  0  1  -360  360;
    28  152  0.00427402  0.03504695  1.58118400  1787.5  1787.5  1787.5  0  0  1  -360  360;
    28  86  0.00164726  0.01350757  0.60940800  1787.5  1787.5  1787.5  0  0  1  -360  360;
    139  86  0.00392697  0.03220116  1.45280000  1787.5  1787.5  1787.5  0  0  1  -360  360;
    130  71  0.00057461  0.00471181  0.21257600  1787.5  1787.5  1787.5  0  0  1  -360  360;
    130  71  0.00057463  0.00471196  0.21259200  1787.5  1787.5  1787.5  0  0  1  -360  360;
    177  175  0.00132580  0.01087156  0.49048000  1787.5  1787.5  1787.5  0  0  1  -360  360;
    83  175  0.00154881  0.01270022  0.57299200  1787.5  1787.5  1787.5  0  0  1  -360  360;
    83  175  0.00154881  0.01270022  0.57299200  1787.5  1787.5  1787.5  0  0  1  -360  360;
    177  175  0.00132580  0.01087156  0.49048000  1787.5  1787.5  1787.5  0  0  1  -360  360;
    174  176  0.00131089  0.01074933  0.48497600  1787.5  1787.5  1787.5  0  0  1  -360  360;
    174  176  0.00131089  0.01074933  0.48497600  1787.5  1787.5  1787.5  0  0  1  -360  360;
    59  162  0.00053894  0.00441930  0.19937600  1787.5  1787.5  1787.5  0  0  1  -360  360;
    63  107  0.00150628  0.01235151  0.55724800  1787.5  1787.5  1787.5  0  0  1  -360  360;
    59  107  0.00222728  0.01826371  0.82398400  1787.5  1787.5  1787.5  0  0  1  -360  360;
    161  162  0.00034258  0.00280915  0.12673600  1787.5  1787.5  1787.5  0  0  1  -360  360;
    59  161  0.00019811  0.00162454  0.07329600  1787.5  1787.5  1787.5  0  0  1  -360  360;
    126  107  0.00062272  0.00510630  0.23038400  1787.5  1787.5  1787.5  0  0  1  -360  360;
    62  107  0.00124293  0.01019203  0.45982400  1787.5  1787.5  1787.5  0  0  1  -360  360;
    89  90  0.00022783  0.00186819  0.08428800  1787.5  1787.5  1787.5  0  0  1  -360  360;
    89  91  0.00037371  0.00306442  0.13825600  1787.5  1787.5  1787.5  0  0  1  -360  360;
    91  90  0.00043339  0.00355380  0.16033600  1787.5  1787.5  1787.5  0  0  1  -360  360;
    89  90  0.00023868  0.00195721  0.08830400  1787.5  1787.5  1787.5  0  0  1  -360  360;
    140  153  0.00039716  0.00325675  0.14692800  1787.5  1787.5  1787.5  0  0  1  -360  360;
    140  153  0.00039716  0.00325675  0.14692800  1787.5  1787.5  1787.5  0  0  1  -360  360;
    90  154  0.00142470  0.01168250  0.52707200  1787.5  1787.5  1787.5  0  0  1  -360  360;
    90  154  0.00142486  0.01168388  0.52713600  1787.5  1787.5  1787.5  0  0  1  -360  360;
    153  154  0.00114330  0.00937508  0.42297600  1787.5  1787.5  1787.5  0  0  1  -360  360;
    153  154  0.00114319  0.00937412  0.42292800  1787.5  1787.5  1787.5  0  0  1  -360  360;
    189  56  0.00084798  0.00695342  0.31371200  1787.5  1787.5  1787.5  0  0  1  -360  360;
    189  56  0.00084798  0.00695342  0.31371200  1787.5  1787.5  1787.5  0  0  1  -360  360;
    96  189  0.00127346  0.01044238  0.47112000  1787.5  1787.5  1787.5  0  0  1  -360  360;
    96  189  0.00127346  0.01044239  0.47112000  1787.5  1787.5  1787.5  0  0  1  -360  360;
    57  188  0.00096944  0.00794943  0.35865600  1787.5  1787.5  1787.5  0  0  1  -360  360;
    56  57  0.00058787  0.00482057  0.21748800  1787.5  1787.5  1787.5  0  0  1  -360  360;
    56  57  0.00058787  0.00482057  0.21748800  1787.5  1787.5  1787.5  0  0  1  -360  360;
    108  6  0.00147926  0.01212992  0.54726400  1787.5  1787.5  1787.5  0  0  1  -360  360;
    6  20  0.00007321  0.00060030  0.02708800  1787.5  1787.5  1787.5  0  0  1  -360  360;
    139  152  0.00122952  0.01008209  0.45486400  1787.5  1787.5  1787.5  0  0  1  -360  360;
    149  148  0.00004496  0.00036870  0.01664000  1787.5  1787.5  1787.5  0  0  1  -360  360;
    149  148  0.00004493  0.00036845  0.01662400  1787.5  1787.5  1787.5  0  0  1  -360  360;
    149  148  0.00004496  0.00036870  0.01664000  1787.5  1787.5  1787.5  0  0  1  -360  360;
    149  148  0.00004493  0.00036845  0.01662400  1787.5  1787.5  1787.5  0  0  1  -360  360;
    92  152  0.00013395  0.00109841  0.04955200  1787.5  1787.5  1787.5  0  0  1  -360  360;
    95  34  0.00171086  0.01402902  0.63294400  1787.5  1787.5  1787.5  0  0  1  -360  360;
    191  95  0.00181941  0.01491916  0.67310400  1787.5  1787.5  1787.5  0  0  1  -360  360;
    95  34  0.00171086  0.01402902  0.63294400  1787.5  1787.5  1787.5  0  0  1  -360  360;
    191  95  0.00181941  0.01491916  0.67310400  1787.5  1787.5  1787.5  0  0  1  -360  360;
    34  96  0.00171261  0.01404342  0.63358400  1787.5  1787.5  1787.5  0  0  1  -360  360;
    34  96  0.00171261  0.01404342  0.63358400  1787.5  1787.5  1787.5  0  0  1  -360  360;
    34  108  0.00078153  0.00640858  0.28913600  1787.5  1787.5  1787.5  0  0  1  -360  360;
    34  141  0.00077985  0.00639474  0.28851200  1787.5  1787.5  1787.5  0  0  1  -360  360;
    158  157  0.00169829  0.01392596  0.62828800  1787.5  1787.5  1787.5  0  0  1  -360  360;
    157  90  0.00088172  0.00723009  0.32619200  1787.5  1787.5  1787.5  0  0  1  -360  360;
    34  141  0.00077980  0.00639439  0.28849600  1787.5  1787.5  1787.5  0  0  1  -360  360;
    155  156  0.00061706  0.00505992  0.22828800  1787.5  1787.5  1787.5  0  0  1  -360  360;
    34  141  0.00073662  0.00604027  0.27251200  1787.5  1787.5  1787.5  0  0  1  -360  360;
    159  90  0.00142981  0.01172448  0.52896000  1787.5  1787.5  1787.5  0  0  1  -360  360;
    157  90  0.00088172  0.00723009  0.32619200  1787.5  1787.5  1787.5  0  0  1  -360  360;
    158  159  0.00114734  0.00940822  0.42446400  1787.5  1787.5  1787.5  0  0  1  -360  360;
    34  141  0.00073662  0.00604027  0.27251200  1787.5  1787.5  1787.5  0  0  1  -360  360;
    158  157  0.00169829  0.01392596  0.62828800  1787.5  1787.5  1787.5  0  0  1  -360  360;
    141  158  0.00085751  0.00703156  0.31723200  1787.5  1787.5  1787.5  0  0  1  -360  360;
    141  158  0.00085751  0.00703156  0.31723200  1787.5  1787.5  1787.5  0  0  1  -360  360;
    141  158  0.00085468  0.00700838  0.31619200  1787.5  1787.5  1787.5  0  0  1  -360  360;
    158  90  0.00257694  0.02113092  0.95334400  1787.5  1787.5  1787.5  0  0  1  -360  360;
    90  130  0.00196378  0.01610302  0.72651200  1787.5  1787.5  1787.5  0  0  1  -360  360;
    34  141  0.00098546  0.00808079  0.36457600  1787.5  1787.5  1787.5  0  0  1  -360  360;
    34  158  0.00137445  0.01127046  0.50848000  1787.5  1787.5  1787.5  0  0  1  -360  360;
    90  130  0.00157923  0.01294966  0.58424000  1787.5  1787.5  1787.5  0  0  1  -360  360;
    181  28  0.00271050  0.02222608  1.00275200  1787.5  1787.5  1787.5  0  0  1  -360  360;
    55  76  0.00231026  0.01894413  0.85468800  1787.5  1787.5  1787.5  0  0  1  -360  360;
    76  58  0.00154406  0.01266127  0.57123200  1787.5  1787.5  1787.5  0  0  1  -360  360;
    135  76  0.00178749  0.01465745  0.66129600  1787.5  1787.5  1787.5  0  0  1  -360  360;
    142  76  0.00281508  0.02308363  1.04145600  1787.5  1787.5  1787.5  0  0  1  -360  360;
    142  76  0.00281492  0.02308232  1.04139200  1787.5  1787.5  1787.5  0  0  1  -360  360;
    190  135  0.00068317  0.00560202  0.25273600  1787.5  1787.5  1787.5  0  0  1  -360  360;
    146  148  0.00020561  0.00168603  0.07606400  1787.5  1787.5  1787.5  0  0  1  -360  360;
    145  146  0.00146867  0.01204306  0.54334400  1787.5  1787.5  1787.5  0  0  1  -360  360;
    146  148  0.00020574  0.00168706  0.07611200  1787.5  1787.5  1787.5  0  0  1  -360  360;
    146  84  0.00211965  0.01738111  0.78417600  1787.5  1787.5  1787.5  0  0  1  -360  360;
    84  136  0.00115612  0.00948019  0.42771200  1787.5  1787.5  1787.5  0  0  1  -360  360;
    84  136  0.00115612  0.00948019  0.42771200  1787.5  1787.5  1787.5  0  0  1  -360  360;
    146  84  0.00211972  0.01738171  0.78419200  1787.5  1787.5  1787.5  0  0  1  -360  360;
    137  136  0.00082931  0.00680037  0.30680000  1787.5  1787.5  1787.5  0  0  1  -360  360;
    100  68  0.00020222  0.00165821  0.07481600  1787.5  1787.5  1787.5  0  0  1  -360  360;
    142  100  0.00305696  0.02506707  1.13092800  1787.5  1787.5  1787.5  0  0  1  -360  360;
    142  100  0.00305681  0.02506580  1.13088000  1787.5  1787.5  1787.5  0  0  1  -360  360;
    100  137  0.00097252  0.00797466  0.35979200  1787.5  1787.5  1787.5  0  0  1  -360  360;
    100  137  0.00097254  0.00797482  0.35979200  1787.5  1787.5  1787.5  0  0  1  -360  360;
    137  51  0.00312058  0.02558877  1.15446400  1787.5  1787.5  1787.5  0  0  1  -360  360;
    109  122  0.00141204  0.01157872  0.52238400  1787.5  1787.5  1787.5  0  0  1  -360  360;
    81  51  0.00061535  0.00504589  0.22764800  1787.5  1787.5  1787.5  0  0  1  -360  360;
    81  105  0.00108378  0.00888702  0.40094400  1787.5  1787.5  1787.5  0  0  1  -360  360;
    122  105  0.00061708  0.00506008  0.22828800  1787.5  1787.5  1787.5  0  0  1  -360  360;
    122  105  0.00061796  0.00506726  0.22862400  1787.5  1787.5  1787.5  0  0  1  -360  360;
    49  146  0.00099853  0.00818793  0.36940800  1787.5  1787.5  1787.5  0  0  1  -360  360;
    150  49  0.00114364  0.00937787  0.42308800  1787.5  1787.5  1787.5  0  0  1  -360  360;
    150  146  0.00222060  0.01820890  0.82152000  1787.5  1787.5  1787.5  0  0  1  -360  360;
    166  150  0.00057962  0.00475289  0.21443200  1787.5  1787.5  1787.5  0  0  1  -360  360;
    150  146  0.00222058  0.01820877  0.82152000  1787.5  1787.5  1787.5  0  0  1  -360  360;
    163  48  0.00055630  0.00456164  0.20580800  1787.5  1787.5  1787.5  0  0  1  -360  360;
    162  163  0.00195081  0.01599664  0.72171200  1787.5  1787.5  1787.5  0  0  1  -360  360;
    162  163  0.00195050  0.01599412  0.72160000  1787.5  1787.5  1787.5  0  0  1  -360  360;
    162  167  0.00123128  0.01009650  0.45552000  1787.5  1787.5  1787.5  0  0  1  -360  360;
    163  48  0.00055663  0.00456439  0.20593600  1787.5  1787.5  1787.5  0  0  1  -360  360;
    162  166  0.00161696  0.01325910  0.59820800  1787.5  1787.5  1787.5  0  0  1  -360  360;
    107  163  0.00078540  0.00644031  0.29056000  1787.5  1787.5  1787.5  0  0  1  -360  360;
    59  62  0.00098506  0.00807749  0.36443200  1787.5  1787.5  1787.5  0  0  1  -360  360;
    107  163  0.00078534  0.00643983  0.29054400  1787.5  1787.5  1787.5  0  0  1  -360  360;
    163  164  0.00124418  0.01020226  0.46028800  1787.5  1787.5  1787.5  0  0  1  -360  360;
    163  164  0.00124408  0.01020145  0.46025600  1787.5  1787.5  1787.5  0  0  1  -360  360;
    99  164  0.00190159  0.01559301  0.70350400  1787.5  1787.5  1787.5  0  0  1  -360  360;
    99  165  0.00113634  0.00931798  0.42040000  1787.5  1787.5  1787.5  0  0  1  -360  360;
    165  164  0.00076713  0.00629044  0.28380800  1787.5  1787.5  1787.5  0  0  1  -360  360;
    107  160  0.00157360  0.01290355  0.58216000  1787.5  1787.5  1787.5  0  0  1  -360  360;
    168  169  0.00160874  0.01319169  0.59516800  1787.5  1787.5  1787.5  0  0  1  -360  360;
    168  63  0.00087523  0.00717689  0.32379200  1787.5  1787.5  1787.5  0  0  1  -360  360;
    168  63  0.00087523  0.00717689  0.32379200  1787.5  1787.5  1787.5  0  0  1  -360  360;
    168  160  0.00201370  0.01651233  0.74497600  1787.5  1787.5  1787.5  0  0  1  -360  360;
    169  160  0.00053984  0.00442668  0.19971200  1787.5  1787.5  1787.5  0  0  1  -360  360;
    168  160  0.00201369  0.01651228  0.74497600  1787.5  1787.5  1787.5  0  0  1  -360  360;
    169  160  0.00053984  0.00442668  0.19971200  1787.5  1787.5  1787.5  0  0  1  -360  360;
    107  160  0.00157424  0.01290879  0.58240000  1787.5  1787.5  1787.5  0  0  1  -360  360;
    168  169  0.00160874  0.01319169  0.59516800  1787.5  1787.5  1787.5  0  0  1  -360  360;
    90  140  0.00035882  0.00294229  0.13275200  1787.5  1787.5  1787.5  0  0  1  -360  360;
    90  140  0.00035643  0.00292269  0.13185600  1787.5  1787.5  1787.5  0  0  1  -360  360;
    90  140  0.00035643  0.00292269  0.13185600  1787.5  1787.5  1787.5  0  0  1  -360  360;
    90  140  0.00035882  0.00294229  0.13275200  1787.5  1787.5  1787.5  0  0  1  -360  360;
    154  125  0.00083017  0.00680742  0.30712000  1787.5  1787.5  1787.5  0  0  1  -360  360;
    125  124  0.00005923  0.00048567  0.02190400  1787.5  1787.5  1787.5  0  0  1  -360  360;
    125  124  0.00007393  0.00060625  0.02734400  1787.5  1787.5  1787.5  0  0  1  -360  360;
    154  125  0.00076394  0.00626428  0.28262400  1787.5  1787.5  1787.5  0  0  1  -360  360;
    154  125  0.00076352  0.00626084  0.28246400  1787.5  1787.5  1787.5  0  0  1  -360  360;
    86  132  0.00232133  0.01903494  0.85878400  1787.5  1787.5  1787.5  0  0  1  -360  360;
    132  52  0.00133396  0.01093847  0.49350400  1787.5  1787.5  1787.5  0  0  1  -360  360;
    131  132  0.00097567  0.00800051  0.36096000  1787.5  1787.5  1787.5  0  0  1  -360  360;
    45  132  0.00160734  0.01318018  0.59464000  1787.5  1787.5  1787.5  0  0  1  -360  360;
    131  132  0.00097567  0.00800051  0.36096000  1787.5  1787.5  1787.5  0  0  1  -360  360;
    132  52  0.00133396  0.01093847  0.49350400  1787.5  1787.5  1787.5  0  0  1  -360  360;
    86  132  0.00232133  0.01903494  0.85878400  1787.5  1787.5  1787.5  0  0  1  -360  360;
    110  45  0.00132582  0.01087169  0.49049600  1787.5  1787.5  1787.5  0  0  1  -360  360;
    110  132  0.00293346  0.02405434  1.08524800  1787.5  1787.5  1787.5  0  0  1  -360  360;
    55  65  0.00157375  0.01290476  0.58220800  1787.5  1787.5  1787.5  0  0  1  -360  360;
    142  55  0.00049766  0.00408082  0.18411200  1787.5  1787.5  1787.5  0  0  1  -360  360;
    41  44  0.00104269  0.00855004  0.38574400  1787.5  1787.5  1787.5  0  0  1  -360  360;
    41  44  0.00104269  0.00855003  0.38574400  1787.5  1787.5  1787.5  0  0  1  -360  360;
    177  44  0.00091397  0.00749455  0.33812800  1787.5  1787.5  1787.5  0  0  1  -360  360;
    177  44  0.00091401  0.00749485  0.33814400  1787.5  1787.5  1787.5  0  0  1  -360  360;
    172  83  0.00068119  0.00558575  0.25201600  1787.5  1787.5  1787.5  0  0  1  -360  360;
    172  83  0.00068188  0.00559140  0.25225600  1787.5  1787.5  1787.5  0  0  1  -360  360;
    172  83  0.00068119  0.00558575  0.25201600  1787.5  1787.5  1787.5  0  0  1  -360  360;
    172  83  0.00068188  0.00559140  0.25225600  1787.5  1787.5  1787.5  0  0  1  -360  360;
    129  179  0.00087840  0.00720289  0.32496000  1787.5  1787.5  1787.5  0  0  1  -360  360;
    177  111  0.00082617  0.00677463  0.30564800  1787.5  1787.5  1787.5  0  0  1  -360  360;
    111  179  0.00190527  0.01562318  0.70486400  1787.5  1787.5  1787.5  0  0  1  -360  360;
    177  111  0.00082617  0.00677463  0.30564800  1787.5  1787.5  1787.5  0  0  1  -360  360;
    83  111  0.00305705  0.02506784  1.13097600  1787.5  1787.5  1787.5  0  0  1  -360  360;
    83  111  0.00305705  0.02506784  1.13097600  1787.5  1787.5  1787.5  0  0  1  -360  360;
    179  98  0.00112018  0.00918551  0.41441600  1787.5  1787.5  1787.5  0  0  1  -360  360;
    179  98  0.00112018  0.00918551  0.41441600  1787.5  1787.5  1787.5  0  0  1  -360  360;
    121  192  0.00111821  0.00916933  0.41368000  1787.5  1787.5  1787.5  0  0  1  -360  360;
    41  192  0.00282972  0.02320369  1.04686400  1787.5  1787.5  1787.5  0  0  1  -360  360;
    182  183  0.00079633  0.00652990  0.29460800  1787.5  1787.5  1787.5  0  0  1  -360  360;
    182  183  0.00079633  0.00652990  0.29460800  1787.5  1787.5  1787.5  0  0  1  -360  360;
    101  168  0.00070422  0.00577457  0.26052800  1787.5  1787.5  1787.5  0  0  1  -360  360;
    101  168  0.00070422  0.00577457  0.26052800  1787.5  1787.5  1787.5  0  0  1  -360  360;
    101  168  0.00070348  0.00576850  0.26025600  1787.5  1787.5  1787.5  0  0  1  -360  360;
    101  168  0.00070348  0.00576850  0.26025600  1787.5  1787.5  1787.5  0  0  1  -360  360;
    172  112  0.00046278  0.00379480  0.17120000  1787.5  1787.5  1787.5  0  0  1  -360  360;
    172  112  0.00046276  0.00379463  0.17120000  1787.5  1787.5  1787.5  0  0  1  -360  360;
    172  112  0.00046278  0.00379480  0.17120000  1787.5  1787.5  1787.5  0  0  1  -360  360;
    24  88  0.00060492  0.00496039  0.22379200  1787.5  1787.5  1787.5  0  0  1  -360  360;
    24  25  0.00088698  0.00727325  0.32814400  1787.5  1787.5  1787.5  0  0  1  -360  360;
    24  88  0.00060492  0.00496038  0.22379200  1787.5  1787.5  1787.5  0  0  1  -360  360;
    24  25  0.00088698  0.00727325  0.32814400  1787.5  1787.5  1787.5  0  0  1  -360  360;
    24  7  0.00010361  0.00084957  0.03833600  1787.5  1787.5  1787.5  0  0  1  -360  360;
    7  8  0.00002203  0.00018066  0.00814400  1787.5  1787.5  1787.5  0  0  1  -360  360;
    8  88  0.00045995  0.00377156  0.17016000  1787.5  1787.5  1787.5  0  0  1  -360  360;
    24  7  0.00010361  0.00084957  0.03833600  1787.5  1787.5  1787.5  0  0  1  -360  360;
    7  8  0.00002203  0.00018066  0.00814400  1787.5  1787.5  1787.5  0  0  1  -360  360;
    8  29  0.00060866  0.00499102  0.22518400  1787.5  1787.5  1787.5  0  0  1  -360  360;
    29  88  0.00024084  0.00197492  0.08910400  1787.5  1787.5  1787.5  0  0  1  -360  360;
    123  32  0.00075586  0.00619803  0.27963200  1787.5  1787.5  1787.5  0  0  1  -360  360;
    33  191  0.00111307  0.00912714  0.41177600  1787.5  1787.5  1787.5  0  0  1  -360  360;
    32  33  0.00073071  0.00599178  0.27032000  1787.5  1787.5  1787.5  0  0  1  -360  360;
    32  33  0.00073070  0.00599175  0.27032000  1787.5  1787.5  1787.5  0  0  1  -360  360;
    88  30  0.00348685  0.02859218  1.28996800  1787.5  1787.5  1787.5  0  0  1  -360  360;
    33  191  0.00111310  0.00912744  0.41179200  1787.5  1787.5  1787.5  0  0  1  -360  360;
    88  30  0.00348803  0.02860185  1.29041600  1787.5  1787.5  1787.5  0  0  1  -360  360;
    30  123  0.00095362  0.00781970  0.35280000  1787.5  1787.5  1787.5  0  0  1  -360  360;
    30  32  0.00171086  0.01402903  0.63294400  1787.5  1787.5  1787.5  0  0  1  -360  360;
    37  35  0.00204842  0.01679706  0.75782400  1787.5  1787.5  1787.5  0  0  1  -360  360;
    35  32  0.00227440  0.01865007  0.84142400  1787.5  1787.5  1787.5  0  0  1  -360  360;
    37  35  0.00204842  0.01679706  0.75782400  1787.5  1787.5  1787.5  0  0  1  -360  360;
    35  32  0.00227440  0.01865011  0.84142400  1787.5  1787.5  1787.5  0  0  1  -360  360;
    191  103  0.00133210  0.01092324  0.49281600  1787.5  1787.5  1787.5  0  0  1  -360  360;
    191  103  0.00133340  0.01093386  0.49329600  1787.5  1787.5  1787.5  0  0  1  -360  360;
    38  29  0.00098095  0.00804382  0.36291200  1787.5  1787.5  1787.5  0  0  1  -360  360;
    39  38  0.00134420  0.01102241  0.49729600  1787.5  1787.5  1787.5  0  0  1  -360  360;
    39  38  0.00134481  0.01102740  0.49752000  1787.5  1787.5  1787.5  0  0  1  -360  360;
    40  39  0.00157396  0.01290645  0.58228800  1787.5  1787.5  1787.5  0  0  1  -360  360;
    38  88  0.00117273  0.00961638  0.43385600  1787.5  1787.5  1787.5  0  0  1  -360  360;
    38  88  0.00117273  0.00961638  0.43385600  1787.5  1787.5  1787.5  0  0  1  -360  360;
    1  170  0.00102062  0.00836909  0.37758400  1787.5  1787.5  1787.5  0  0  1  -360  360;
    1  170  0.00102043  0.00836751  0.37750400  1787.5  1787.5  1787.5  0  0  1  -360  360;
    170  168  0.00094613  0.00775827  0.35003200  1787.5  1787.5  1787.5  0  0  1  -360  360;
    170  168  0.00094602  0.00775734  0.34998400  1787.5  1787.5  1787.5  0  0  1  -360  360;
    171  168  0.00040705  0.00333780  0.15059200  1787.5  1787.5  1787.5  0  0  1  -360  360;
    171  168  0.00040705  0.00333780  0.15059200  1787.5  1787.5  1787.5  0  0  1  -360  360;
    176  170  0.00155420  0.01274446  0.57497600  1787.5  1787.5  1787.5  0  0  1  -360  360;
    176  170  0.00155420  0.01274446  0.57497600  1787.5  1787.5  1787.5  0  0  1  -360  360;
    173  172  0.00026825  0.00219966  0.09924800  1787.5  1787.5  1787.5  0  0  1  -360  360;
    173  172  0.00026825  0.00219966  0.09924800  1787.5  1787.5  1787.5  0  0  1  -360  360;
    98  120  0.00041719  0.00342099  0.15433600  1787.5  1787.5  1787.5  0  0  1  -360  360;
    98  120  0.00041719  0.00342099  0.15433600  1787.5  1787.5  1787.5  0  0  1  -360  360;
    102  133  0.00132621  0.01087496  0.49064000  1787.5  1787.5  1787.5  0  0  1  -360  360;
    102  133  0.00132621  0.01087496  0.49064000  1787.5  1787.5  1787.5  0  0  1  -360  360;
    113  160  0.00054049  0.00443206  0.19995200  1787.5  1787.5  1787.5  0  0  1  -360  360;
    113  160  0.00054181  0.00444280  0.20044800  1787.5  1787.5  1787.5  0  0  1  -360  360;
    133  46  0.00031934  0.00261862  0.11814400  1787.5  1787.5  1787.5  0  0  1  -360  360;
    87  93  0.00041572  0.00340887  0.15379200  1787.5  1787.5  1787.5  0  0  1  -360  360;
    87  93  0.00037193  0.00304986  0.13760000  1787.5  1787.5  1787.5  0  0  1  -360  360;
    87  93  0.00037579  0.00308151  0.13902400  1787.5  1787.5  1787.5  0  0  1  -360  360;
    93  183  0.00100544  0.00824464  0.37196800  1787.5  1787.5  1787.5  0  0  1  -360  360;
    93  183  0.00100544  0.00824464  0.37196800  1787.5  1787.5  1787.5  0  0  1  -360  360;
    105  50  0.00056934  0.00466858  0.21062400  1787.5  1787.5  1787.5  0  0  1  -360  360;
    100  138  0.00052783  0.00432821  0.19528000  1787.5  1787.5  1787.5  0  0  1  -360  360;
    100  50  0.00203631  0.01669773  0.75334400  1787.5  1787.5  1787.5  0  0  1  -360  360;
    138  105  0.00208846  0.01712535  0.77264000  1787.5  1787.5  1787.5  0  0  1  -360  360;
    83  174  0.00026014  0.00213318  0.09624000  1787.5  1787.5  1787.5  0  0  1  -360  360;
    83  174  0.00026014  0.00213318  0.09624000  1787.5  1787.5  1787.5  0  0  1  -360  360;
    93  134  0.00109870  0.00900930  0.40646400  1787.5  1787.5  1787.5  0  0  1  -360  360;
    93  134  0.00110004  0.00902033  0.40696000  1787.5  1787.5  1787.5  0  0  1  -360  360;
    97  53  0.00146967  0.01205133  0.54371200  1787.5  1787.5  1787.5  0  0  1  -360  360;
    97  99  0.00027966  0.00229320  0.10345600  1787.5  1787.5  1787.5  0  0  1  -360  360;
    53  142  0.00066442  0.00544826  0.24580800  1787.5  1787.5  1787.5  0  0  1  -360  360;
    97  53  0.00146967  0.01205133  0.54371200  1787.5  1787.5  1787.5  0  0  1  -360  360;
    134  142  0.00154659  0.01268205  0.57216000  1787.5  1787.5  1787.5  0  0  1  -360  360;
    97  99  0.00027966  0.00229320  0.10345600  1787.5  1787.5  1787.5  0  0  1  -360  360;
    134  142  0.00154641  0.01268053  0.57209600  1787.5  1787.5  1787.5  0  0  1  -360  360;
    53  142  0.00066433  0.00544747  0.24577600  1787.5  1787.5  1787.5  0  0  1  -360  360;
    97  134  0.00088965  0.00729511  0.32913600  1787.5  1787.5  1787.5  0  0  1  -360  360;
    97  134  0.00089028  0.00730028  0.32936000  1787.5  1787.5  1787.5  0  0  1  -360  360;
    144  77  0.00026380  0.00216317  0.09760000  1787.5  1787.5  1787.5  0  0  1  -360  360;
    143  142  0.00171507  0.01406356  0.63449600  1787.5  1787.5  1787.5  0  0  1  -360  360;
    74  143  0.00008820  0.00072328  0.03262400  1787.5  1787.5  1787.5  0  0  1  -360  360;
    144  74  0.00062284  0.00510727  0.23041600  1787.5  1787.5  1787.5  0  0  1  -360  360;
    144  99  0.00048072  0.00394191  0.17784000  1787.5  1787.5  1787.5  0  0  1  -360  360;
    77  99  0.00021971  0.00180160  0.08128000  1787.5  1787.5  1787.5  0  0  1  -360  360;
    160  144  0.00050507  0.00414155  0.18684800  1787.5  1787.5  1787.5  0  0  1  -360  360;
    133  186  0.00009946  0.00081555  0.03680000  1787.5  1787.5  1787.5  0  0  1  -360  360;
    133  186  0.00010043  0.00082352  0.03715200  1787.5  1787.5  1787.5  0  0  1  -360  360;
    133  186  0.00009890  0.00081097  0.03659200  1787.5  1787.5  1787.5  0  0  1  -360  360;
    160  144  0.00050507  0.00414155  0.18684800  1787.5  1787.5  1787.5  0  0  1  -360  360;
    133  186  0.00009963  0.00081695  0.03686400  1787.5  1787.5  1787.5  0  0  1  -360  360;
    115  137  0.00003192  0.00026175  0.01180800  1787.5  1787.5  1787.5  0  0  1  -360  360;
    111  129  0.00102796  0.00842926  0.38030400  1787.5  1787.5  1787.5  0  0  1  -360  360;
    116  134  0.00007058  0.00057877  0.02611200  1787.5  1787.5  1787.5  0  0  1  -360  360;
    134  190  0.00133045  0.01090972  0.49220800  1787.5  1787.5  1787.5  0  0  1  -360  360;
    158  118  0.00004984  0.00040870  0.01843200  1787.5  1787.5  1787.5  0  0  1  -360  360;
    158  118  0.00004984  0.00040870  0.01843200  1787.5  1787.5  1787.5  0  0  1  -360  360;
    158  118  0.00004953  0.00040613  0.01832000  1787.5  1787.5  1787.5  0  0  1  -360  360;
    158  118  0.00004953  0.00040613  0.01832000  1787.5  1787.5  1787.5  0  0  1  -360  360;
    146  54  0.00066122  0.00542200  0.24462400  1787.5  1787.5  1787.5  0  0  1  -360  360;
    64  136  0.00050897  0.00417359  0.18830400  1787.5  1787.5  1787.5  0  0  1  -360  360;
    64  136  0.00050897  0.00417359  0.18830400  1787.5  1787.5  1787.5  0  0  1  -360  360;
    64  136  0.00051024  0.00418399  0.18876800  1787.5  1787.5  1787.5  0  0  1  -360  360;
    64  136  0.00051024  0.00418399  0.18876800  1787.5  1787.5  1787.5  0  0  1  -360  360;
    30  72  0.00003268  0.00026795  0.01209600  1787.5  1787.5  1787.5  0  0  1  -360  360;
    30  72  0.00003187  0.00026134  0.01179200  1787.5  1787.5  1787.5  0  0  1  -360  360;
    43  34  0.00047824  0.00392159  0.17692800  1787.5  1787.5  1787.5  0  0  1  -360  360;
    112  172  0.00046279  0.00379489  0.17121600  1787.5  1787.5  1787.5  0  0  1  -360  360;
    79  6  0.00009641  0.00079059  0.03566400  1787.5  1787.5  1787.5  0  0  1  -360  360;
    6  20  0.00007321  0.00060030  0.02708800  1787.5  1787.5  1787.5  0  0  1  -360  360;
    41  121  0.00171142  0.01403362  0.63315200  1787.5  1787.5  1787.5  0  0  1  -360  360;
    170  102  0.00077387  0.00634571  0.28628800  1787.5  1787.5  1787.5  0  0  1  -360  360;
    170  102  0.00077387  0.00634571  0.28628800  1787.5  1787.5  1787.5  0  0  1  -360  360;
    145  147  0.00061265  0.00502371  0.22665600  1787.5  1787.5  1787.5  0  0  1  -360  360;
    147  146  0.00085584  0.00701788  0.31662400  1787.5  1787.5  1787.5  0  0  1  -360  360;
    63  126  0.00088412  0.00724980  0.32708800  1787.5  1787.5  1787.5  0  0  1  -360  360;
    114  42  0.00240629  0.01973159  0.89022400  1787.5  1787.5  1787.5  0  0  1  -360  360;
    88  114  0.00040528  0.00332329  0.14993600  1787.5  1787.5  1787.5  0  0  1  -360  360;
    153  151  0.00024751  0.00202956  1.46505600  7149.9  7149.9  7149.9  0  0  1  -360  360;
    52  155  0.00026798  0.00219744  1.58624000  7149.9  7149.9  7149.9  0  0  1  -360  360;
    19  91  0.00007897  0.00064752  0.02921600  1787.5  1787.5  1787.5  0  0  1  -360  360;
    58  19  0.00170978  0.01402018  0.63254400  1787.5  1787.5  1787.5  0  0  1  -360  360;
    19  140  0.00011262  0.00092346  0.66662400  7149.9  7149.9  7149.9  0  0  1  -360  360;
    98  9  0.00000791  0.00010000  0.04681600  7149.9  7149.9  7149.9  0  0  1  -360  360;
    11  31  0.00001824  0.00014953  0.10793600  7149.9  7149.9  7149.9  0  0  1  -360  360;
    113  14  0.00039909  0.00327254  0.14764800  1787.5  1787.5  1787.5  0  0  1  -360  360;
    14  160  0.00004205  0.00034478  0.24889600  7149.9  7149.9  7149.9  0  0  1  -360  360;
    18  113  0.00022338  0.00183172  0.08264000  1787.5  1787.5  1787.5  0  0  1  -360  360;
    12  148  0.00008721  0.00071515  0.03227200  1787.5  1787.5  1787.5  0  0  1  -360  360;
    17  87  0.00003365  0.00027590  0.01244800  1787.5  1787.5  1787.5  0  0  1  -360  360;
    17  87  0.00003260  0.00026733  0.01206400  1787.5  1787.5  1787.5  0  0  1  -360  360;
    17  87  0.00003306  0.00027112  0.01224000  1787.5  1787.5  1787.5  0  0  1  -360  360;
    17  87  0.00003430  0.00028128  0.01268800  1787.5  1787.5  1787.5  0  0  1  -360  360;
    60  136  0.00015855  0.00130012  0.93849600  7149.9  7149.9  7149.9  0  0  1  -360  360;
    16  185  0.00030526  0.00250313  1.80691200  7149.9  7149.9  7149.9  0  0  1  -360  360;
    166  150  0.00015948  0.00130771  0.94396800  7149.9  7149.9  7149.9  0  0  1  -360  360;
    80  41  0.00065599  0.00537908  3.88294400  7149.9  7149.9  7149.9  0  0  1  -360  360;
    46  17  0.00019186  0.00157326  1.13568000  7149.9  7149.9  7149.9  0  0  1  -360  360;
    156  157  0.00007907  0.00064838  0.46803200  7149.9  7149.9  7149.9  0  0  1  -360  360;
    86  13  0.00143439  0.01176203  0.53065600  1787.5  1787.5  1787.5  0  0  1  -360  360;
    134  16  0.00005865  0.00048095  0.02169600  1787.5  1787.5  1787.5  0  0  1  -360  360;
    185  110  0.00017109  0.00140294  1.01273600  7149.9  7149.9  7149.9  0  0  1  -360  360;
    155  140  0.00026509  0.00217371  1.56912000  7149.9  7149.9  7149.9  0  0  1  -360  360;
    185  134  0.00127434  0.01044955  0.47144000  1787.5  1787.5  1787.5  0  0  1  -360  360;
    8  7  0.00002202  0.00018055  0.00814400  1787.5  1787.5  1787.5  0  0  1  -360  360;
    162  11  0.00001150  0.00010000  0.06806400  7149.9  7149.9  7149.9  0  0  1  -360  360;
    122  3  0.00007290  0.00059776  0.02697600  1787.5  1787.5  1787.5  0  0  1  -360  360;
    182  17  0.00032580  0.00267155  1.92848000  7149.9  7149.9  7149.9  0  0  1  -360  360;
    63  61  0.00003977  0.00032614  0.01472000  1787.5  1787.5  1787.5  0  0  1  -360  360;
    63  61  0.00003984  0.00032667  0.01473600  1787.5  1787.5  1787.5  0  0  1  -360  360;
    183  185  0.00023818  0.00195306  1.40985600  7149.9  7149.9  7149.9  0  0  1  -360  360;
    134  16  0.00005917  0.00048519  0.02188800  1787.5  1787.5  1787.5  0  0  1  -360  360;
    185  13  0.00018437  0.00151183  0.06820800  1787.5  1787.5  1787.5  0  0  1  -360  360;
    185  184  0.00008999  0.00073789  0.53264000  7149.9  7149.9  7149.9  0  0  1  -360  360;
    13  184  0.00006595  0.00054078  0.39036800  7149.9  7149.9  7149.9  0  0  1  -360  360;
    18  113  0.00022300  0.00182857  0.08249600  1787.5  1787.5  1787.5  0  0  1  -360  360;
    133  18  0.00009869  0.00080926  0.58416000  7149.9  7149.9  7149.9  0  0  1  -360  360;
    80  67  0.00046319  0.00379817  2.74176000  7149.9  7149.9  7149.9  0  0  1  -360  360;
    122  5  0.00010000  0.01000000  0.00000000  8938.0  8938.0  8938.0  0  0  1  -360  360;
    136  4  0.00010000  0.01000000  0.00000000  17875.0  17875.0  17875.0  0  0  1  -360  360;
];

%% bus name index
% 1: relation/13260100-400
% 2: virtual_relation/19874522:0-400
% 3: virtual_relation/3717716:a:1-400
% 4: virtual_relation/3756990:0-380
% 5: virtual_relation/3989161:1-380
% 6: virtual_relation/5952075:b:1-400
% 7: virtual_relation/6492540:a:1-400
% 8: virtual_relation/6492540:b:1-400
% 9: virtual_way/1346026649:1-400
% 10: virtual_way/1347440288:1-400
% 11: virtual_way/1430729489:1-400
% 12: virtual_way/175128983:0-400
% 13: virtual_way/23286260:1-400
% 14: virtual_way/328017422:1-400
% 15: virtual_way/380651625:1-400
% 16: virtual_way/41453026:1-400
% 17: virtual_way/85226749:1-400
% 18: virtual_way/88910320:0-400
% 19: virtual_way/94524735:0-400
% 20: way/100087916-400
% 21: way/1000881525-400
% 22: way/100500802-400
% 23: way/104481448-400
% 24: way/105515586-400
% 25: way/105571340-400
% 26: way/105630888-400
% 27: way/105690676-400
% 28: way/105783300-400
% 29: way/105840884-400
% 30: way/105913465-400
% 31: way/108099552-400
% 32: way/109817708-400
% 33: way/109859712-400
% 34: way/110086345-400
% 35: way/110443404-400
% 36: way/110450456-400
% 37: way/111414142-400
% 38: way/111456385-400
% 39: way/111458307-400
% 40: way/111558550-400
% 41: way/112342683-400
% 42: way/112893617-400
% 43: way/114018928-400
% 44: way/114355666-400
% 45: way/114363583-400
% 46: way/117350758-400
% 47: way/117446403-400
% 48: way/117893799-400
% 49: way/117975440-400
% 50: way/118079877-400
% 51: way/118086309-400
% 52: way/118121876-400
% 53: way/118387083-400
% 54: way/118655802-400
% 55: way/120707003-400
% 56: way/121297422-400
% 57: way/121500497-400
% 58: way/122563466-400
% 59: way/1271288345-400
% 60: way/129378915-400
% 61: way/1328398132-400
% 62: way/1328928946-400
% 63: way/1330896577-400
% 64: way/133299582-400
% 65: way/138382023-400
% 66: way/146449309-400
% 67: way/146695955-400
% 68: way/147056882-400
% 69: way/147132685-400
% 70: way/147132690-400
% 71: way/147132694-400
% 72: way/157456064-400
% 73: way/159167277-400
% 74: way/162540710-400
% 75: way/166073883-400
% 76: way/179260933-400
% 77: way/188144496-400
% 78: way/199229562-400
% 79: way/202753898-400
% 80: way/210389707-400
% 81: way/214483816-400
% 82: way/214858101-400
% 83: way/222188543-400
% 84: way/225210595-400
% 85: way/229597405-400
% 86: way/23286313-400
% 87: way/23287448-400
% 88: way/235370803-400
% 89: way/24020441-400
% 90: way/24020601-400
% 91: way/24025291-400
% 92: way/244052591-400
% 93: way/24849819-400
% 94: way/26112209-400
% 95: way/26376870-400
% 96: way/27259817-400
% 97: way/27266058-400
% 98: way/27951432-400
% 99: way/29088787-400
% 100: way/295403868-400
% 101: way/299341285-400
% 102: way/30292953-400
% 103: way/312728271-400
% 104: way/318502246-400
% 105: way/32196554-400
% 106: way/34198056-400
% 107: way/36805588-400
% 108: way/393286774-400
% 109: way/39389229-400
% 110: way/41829825-400
% 111: way/432466512-400
% 112: way/437091959-400
% 113: way/442651900-400
% 114: way/443975666-400
% 115: way/446406715-400
% 116: way/448214160-400
% 117: way/448355914-400
% 118: way/448722478-400
% 119: way/448722484-400
% 120: way/44883864-400
% 121: way/467775702-400
% 122: way/49049745-400
% 123: way/49510896-400
% 124: way/56997464-400
% 125: way/56998024-400
% 126: way/580568888-400
% 127: way/580927266-400
% 128: way/589691213-400
% 129: way/659343518-400
% 130: way/69813552-400
% 131: way/71933077-400
% 132: way/71933086-400
% 133: way/788298548-400
% 134: way/79866837-400
% 135: way/81228088-400
% 136: way/81641090-400
% 137: way/81665271-400
% 138: way/81758476-400
% 139: way/82306874-400
% 140: way/823662703-400
% 141: way/823662705-400
% 142: way/82599261-400
% 143: way/82715808-400
% 144: way/82741307-400
% 145: way/82805188-400
% 146: way/82825438-400
% 147: way/82825446-400
% 148: way/82949228-400
% 149: way/82949240-400
% 150: way/82967739-400
% 151: way/83293593-400
% 152: way/83726363-400
% 153: way/84153220-400
% 154: way/84182609-400
% 155: way/84452130-400
% 156: way/84476231-400
% 157: way/84485792-400
% 158: way/84490483-400
% 159: way/84603564-400
% 160: way/85047359-400
% 161: way/85198005-400
% 162: way/85203486-400
% 163: way/85217416-400
% 164: way/85273680-400
% 165: way/85335661-400
% 166: way/85605950-400
% 167: way/85605959-400
% 168: way/85710783-400
% 169: way/85821243-400
% 170: way/85827397-400
% 171: way/85827398-400
% 172: way/85845085-400
% 173: way/85851255-400
% 174: way/85867971-400
% 175: way/85877326-400
% 176: way/85895367-400
% 177: way/85995894-400
% 178: way/86023818-400
% 179: way/86131984-400
% 180: way/86162998-400
% 181: way/86260099-400
% 182: way/86260748-400
% 183: way/86297273-400
% 184: way/86342772-400
% 185: way/86344183-400
% 186: way/89022080-400
% 187: way/890834366-400
% 188: way/90842395-400
% 189: way/93189928-400
% 190: way/98390525-400
% 191: way/98890904-400
% 192: way/99722046-400

